ProjectFiles/Mikilua/DSSfiles/Old/transformers_res_star.dss
New Transformer.Xfmr_BB_263793_1 Xfmrcode=25 Buses=[DEV_263717.1 DEV_263717_TSF.1]
New Transformer.Xfmr_BB_264037_1 Xfmrcode=37 Buses=[DEV_264038.2 DEV_264038_TSF.2]
New Transformer.Xfmr_BB_264116_1 Xfmrcode=50 Buses=[DEV_264113.3 DEV_264113_TSF.3]
New Transformer.Xfmr_BB_264119_1 Xfmrcode=50 Buses=[DEV_264111.1 DEV_264111_TSF.1]
New Transformer.Xfmr_BB_264132_1 Xfmrcode=37 Buses=[DEV_264131.1 DEV_264131_TSF.1]
New Transformer.Xfmr_BB_264986_1 Xfmrcode=37 Buses=[DEV_264984.1 DEV_264984_TSF.1]
New Transformer.Xfmr_BB_264987_1 Xfmrcode=37 Buses=[DEV_264980.1 DEV_264980_TSF.1]
New Transformer.Xfmr_OH_262480_1 Xfmrcode=75 Buses=[NODE_10017657.2 NODE_10017657_TSF.2]
New Transformer.Xfmr_OH_262481_1 Xfmrcode=37 Buses=[DEV_262518.2 DEV_262518_TSF.2]
New Transformer.Xfmr_OH_262483_1 Xfmrcode=37 Buses=[DEV_262502.1 DEV_262502_TSF.1]
New Transformer.Xfmr_OH_262485_1 Xfmrcode=75 Buses=[DEV_262515.2 DEV_262515_TSF.2]
New Transformer.Xfmr_OH_262486_1 Xfmrcode=25 Buses=[DEV_262513.3 DEV_262513_TSF.3]
New Transformer.Xfmr_OH_262488_1 Xfmrcode=50 Buses=[DEV_262514.2 DEV_262514_TSF.2]
New Transformer.Xfmr_OH_262490_1 Xfmrcode=25 Buses=[DEV_262511.3 DEV_262511_TSF.3]
New Transformer.Xfmr_OH_263518_1 Xfmrcode=50 Buses=[DEV_263743.2 DEV_263743_TSF.2]
New Transformer.Xfmr_OH_263539_1 Xfmrcode=25 Buses=[DEV_263753.1 DEV_263753_TSF.1]
New Transformer.Xfmr_OH_263541_1 Xfmrcode=50 Buses=[DEV_263544.3 DEV_263544_TSF.3]
New Transformer.Xfmr_OH_263737_1 Xfmrcode=50 Buses=[DEV_263744.2 DEV_263744_TSF.2]
New Transformer.Xfmr_OH_263739_1 Xfmrcode=25 Buses=[DEV_263731.2 DEV_263731_TSF.2]
New Transformer.Xfmr_OH_264008_1 Xfmrcode=25 Buses=[DEV_264097.2 DEV_264097_TSF.2]
New Transformer.Xfmr_OH_264009_1 Xfmrcode=75 Buses=[DEV_264027.3 DEV_264027_TSF.3]
New Transformer.Xfmr_OH_264010_1 Xfmrcode=37 Buses=[DEV_264032.1 DEV_264032_TSF.1]
New Transformer.Xfmr_OH_264016_1 Xfmrcode=50 Buses=[NODE_602065.3 NODE_602065_TSF.3]
New Transformer.Xfmr_OH_264022_1 Xfmrcode=25 Buses=[DEV_264024.1 DEV_264024_TSF.1]
New Transformer.Xfmr_OH_264054_1 Xfmrcode=100 Buses=[DEV_264124.3 DEV_264124_TSF.3]
New Transformer.Xfmr_OH_264056_1 Xfmrcode=75 Buses=[DEV_264123.3 DEV_264123_TSF.3]
New Transformer.Xfmr_OH_264057_1 Xfmrcode=50 Buses=[DEV_264122.3 DEV_264122_TSF.3]
New Transformer.Xfmr_OH_264058_1 Xfmrcode=25 Buses=[DEV_264121.3 DEV_264121_TSF.3]
New Transformer.Xfmr_OH_264059_1 Xfmrcode=25 Buses=[DEV_264061.3 DEV_264061_TSF.3]
New Transformer.Xfmr_OH_264073_2 Xfmrcode=25 Buses=[DEV_264129.1 DEV_264129_TSF_2.1]
New Transformer.Xfmr_OH_264073_3 Xfmrcode=25 Buses=[DEV_264129.3 DEV_264129_TSF_3.3]
New Transformer.Xfmr_OH_264087_1 Xfmrcode=50 Buses=[DEV_264091.3 DEV_264091_TSF.3]
New Transformer.Xfmr_OH_264092_1 Xfmrcode=15 Buses=[DEV_264139.2 DEV_264139_TSF.2]
New Transformer.Xfmr_OH_264106_1 Xfmrcode=15 Buses=[DEV_264128.2 DEV_264128_TSF.2]
New Transformer.Xfmr_OH_264108_1 Xfmrcode=50 Buses=[DEV_264127.2 DEV_264127_TSF.2]
New Transformer.Xfmr_OH_264158_1 Xfmrcode=25 Buses=[DEV_264155.2 DEV_264155_TSF.2]
New Transformer.Xfmr_OH_264857_1 Xfmrcode=25 Buses=[NODE_613075.2 NODE_613075_TSF.2]
New Transformer.Xfmr_OH_264858_1 Xfmrcode=25 Buses=[DEV_264862.1 DEV_264862_TSF.1]
New Transformer.Xfmr_OH_264868_1 Xfmrcode=25 Buses=[DEV_264869.1 DEV_264869_TSF.1]
New Transformer.Xfmr_OH_264870_1 Xfmrcode=25 Buses=[DEV_264872.1 DEV_264872_TSF.1]
New Transformer.Xfmr_OH_264874_1 Xfmrcode=25 Buses=[DEV_264876.2 DEV_264876_TSF.2]
New Transformer.Xfmr_OH_264880_1 Xfmrcode=75 Buses=[DEV_264881.1 DEV_264881_TSF.1]
New Transformer.Xfmr_OH_264883_1 Xfmrcode=25 Buses=[DEV_264884.2 DEV_264884_TSF.2]
New Transformer.Xfmr_OH_264887_1 Xfmrcode=25 Buses=[DEV_264888.2 DEV_264888_TSF.2]
New Transformer.Xfmr_OH_264889_1 Xfmrcode=25 Buses=[DEV_264891.1 DEV_264891_TSF.1]
New Transformer.Xfmr_OH_264893_1 Xfmrcode=25 Buses=[DEV_264894.1 DEV_264894_TSF.1]
New Transformer.Xfmr_OH_264898_1 Xfmrcode=15 Buses=[DEV_264901.2 DEV_264901_TSF.2]
New Transformer.Xfmr_OH_264903_1 Xfmrcode=25 Buses=[DEV_264904.2 DEV_264904_TSF.2]
New Transformer.Xfmr_OH_264913_1 Xfmrcode=50 Buses=[DEV_264915.1 DEV_264915_TSF.1]
New Transformer.Xfmr_OH_264919_1 Xfmrcode=25 Buses=[DEV_264921.1 DEV_264921_TSF.1]
New Transformer.Xfmr_OH_264922_1 Xfmrcode=25 Buses=[DEV_264923.1 DEV_264923_TSF.1]
New Transformer.Xfmr_OH_264925_1 Xfmrcode=37 Buses=[DEV_264926.3 DEV_264926_TSF.3]
New Transformer.Xfmr_OH_264928_1 Xfmrcode=25 Buses=[DEV_264929.1 DEV_264929_TSF.1]
New Transformer.Xfmr_OH_264931_1 Xfmrcode=15 Buses=[DEV_264932.3 DEV_264932_TSF.3]
New Transformer.Xfmr_OH_264934_1 Xfmrcode=25 Buses=[DEV_264935.3 DEV_264935_TSF.3]
New Transformer.Xfmr_OH_264945_1 Xfmrcode=50 Buses=[DEV_264947.1 DEV_264947_TSF.1]
New Transformer.Xfmr_OH_264953_1 Xfmrcode=37 Buses=[DEV_264954.1 DEV_264954_TSF.1]
New Transformer.Xfmr_OH_264971_1 Xfmrcode=25 Buses=[DEV_51078841.1 DEV_51078841_TSF.1]
New Transformer.Xfmr_OH_264975_1 Xfmrcode=25 Buses=[DEV_265003.1 DEV_265003_TSF.1]
New Transformer.Xfmr_OH_265008_1 Xfmrcode=25 Buses=[DEV_265012.1 DEV_265012_TSF.1]
New Transformer.Xfmr_OH_265107_1 Xfmrcode=50 Buses=[DEV_265153.3 DEV_265153_TSF.3]
New Transformer.Xfmr_OH_265117_1 Xfmrcode=25 Buses=[DEV_265152.3 DEV_265152_TSF.3]
New Transformer.Xfmr_OH_51061590_1 Xfmrcode=37 Buses=[DEV_264120.2 DEV_264120_TSF.2]
New Transformer.Xfmr_OH_51120111_1 Xfmrcode=25 Buses=[DEV_264140.2 DEV_264140_TSF.2]
New Transformer.Xfmr_OH_51267191_1 Xfmrcode=50 Buses=[DEV_51267197.3 DEV_51267197_TSF.3]
New Transformer.Xfmr_OH_51267194_1 Xfmrcode=50 Buses=[DEV_51267202.3 DEV_51267202_TSF.3]
New Transformer.Xfmr_BB_263625_1 Xfmrcode=75 Buses=[DEV_263913.1 DEV_263913_TSF.1]
New Transformer.Xfmr_BB_263629_1 Xfmrcode=25 Buses=[DEV_263905.1 DEV_263905_TSF.1]
New Transformer.Xfmr_BB_263786_1 Xfmrcode=37 Buses=[DEV_263881.3 DEV_263881_TSF.3]
New Transformer.Xfmr_BB_263787_1 Xfmrcode=25 Buses=[DEV_263883.3 DEV_263883_TSF.3]
New Transformer.Xfmr_BB_263788_1 Xfmrcode=25 Buses=[DEV_263885.3 DEV_263885_TSF.3]
New Transformer.Xfmr_BB_263789_1 Xfmrcode=25 Buses=[DEV_263879.3 DEV_263879_TSF.3]
New Transformer.Xfmr_BB_263794_1 Xfmrcode=25 Buses=[DEV_263903.1 DEV_263903_TSF.1]
New Transformer.Xfmr_BB_263795_1 Xfmrcode=25 Buses=[DEV_263907.1 DEV_263907_TSF.1]
New Transformer.Xfmr_BB_263796_1 Xfmrcode=25 Buses=[DEV_263720.2 DEV_263720_TSF.2]
New Transformer.Xfmr_BB_263797_1 Xfmrcode=37 Buses=[DEV_263652.2 DEV_263652_TSF.2]
New Transformer.Xfmr_BB_263798_1 Xfmrcode=37 Buses=[DEV_263901.2 DEV_263901_TSF.2]
New Transformer.Xfmr_BB_263799_1 Xfmrcode=25 Buses=[DEV_263644.1 DEV_263644_TSF.1]
New Transformer.Xfmr_BB_263800_1 Xfmrcode=25 Buses=[DEV_263899.2 DEV_263899_TSF.2]
New Transformer.Xfmr_BB_263801_1 Xfmrcode=25 Buses=[DEV_263690.3 DEV_263690_TSF.3]
New Transformer.Xfmr_BB_263802_1 Xfmrcode=25 Buses=[DEV_263871.3 DEV_263871_TSF.3]
New Transformer.Xfmr_BB_263803_1 Xfmrcode=37 Buses=[DEV_263680.3 DEV_263680_TSF.3]
New Transformer.Xfmr_BB_263804_1 Xfmrcode=25 Buses=[DEV_263873.3 DEV_263873_TSF.3]
New Transformer.Xfmr_BB_263805_1 Xfmrcode=25 Buses=[DEV_263875.3 DEV_263875_TSF.3]
New Transformer.Xfmr_BB_263806_1 Xfmrcode=25 Buses=[DEV_263865.3 DEV_263865_TSF.3]
New Transformer.Xfmr_BB_263807_1 Xfmrcode=25 Buses=[DEV_263867.3 DEV_263867_TSF.3]
New Transformer.Xfmr_BB_263808_1 Xfmrcode=25 Buses=[DEV_263863.3 DEV_263863_TSF.3]
New Transformer.Xfmr_BB_263809_1 Xfmrcode=25 Buses=[DEV_263869.3 DEV_263869_TSF.3]
New Transformer.Xfmr_BB_263817_1 Xfmrcode=25 Buses=[DEV_263621.1 DEV_263621_TSF.1]
New Transformer.Xfmr_BB_263823_1 Xfmrcode=25 Buses=[DEV_263622.2 DEV_263622_TSF.2]
New Transformer.Xfmr_BB_263888_1 Xfmrcode=25 Buses=[DEV_263887.2 DEV_263887_TSF.2]
New Transformer.Xfmr_BB_258064_1 Xfmrcode=25 Buses=[DEV_258183.1 DEV_258183_TSF.1]
New Transformer.Xfmr_BB_258067_1 Xfmrcode=25 Buses=[DEV_258084.1 DEV_258084_TSF.1]
New Transformer.Xfmr_BB_258070_1 Xfmrcode=37 Buses=[DEV_258185.1 DEV_258185_TSF.1]
New Transformer.Xfmr_BB_258073_1 Xfmrcode=37 Buses=[DEV_258195.1 DEV_258195_TSF.1]
New Transformer.Xfmr_BB_258077_1 Xfmrcode=25 Buses=[DEV_258191.1 DEV_258191_TSF.1]
New Transformer.Xfmr_BB_258080_1 Xfmrcode=50 Buses=[DEV_258181.1 DEV_258181_TSF.1]
New Transformer.Xfmr_BB_258153_1 Xfmrcode=25 Buses=[DEV_258152.1 DEV_258152_TSF.1]
New Transformer.Xfmr_BB_258202_1 Xfmrcode=75 Buses=[DEV_258211.1 DEV_258211_TSF.1]
New Transformer.Xfmr_BB_258797_1 Xfmrcode=50 Buses=[DEV_258894.1 DEV_258894_TSF.1]
New Transformer.Xfmr_BB_258803_1 Xfmrcode=50 Buses=[DEV_258887.1 DEV_258887_TSF.1]
New Transformer.Xfmr_BB_258805_1 Xfmrcode=25 Buses=[DEV_258818.1 DEV_258818_TSF.1]
New Transformer.Xfmr_BB_258824_1 Xfmrcode=50 Buses=[DEV_258823.1 DEV_258823_TSF.1]
New Transformer.Xfmr_BB_258838_1 Xfmrcode=50 Buses=[DEV_258897.1 DEV_258897_TSF.1]
New Transformer.Xfmr_BB_258899_1 Xfmrcode=50 Buses=[DEV_258885.1 DEV_258885_TSF.1]
New Transformer.Xfmr_BB_259031_1 Xfmrcode=37 Buses=[DEV_259145.1 DEV_259145_TSF.1]
New Transformer.Xfmr_BB_259033_1 Xfmrcode=25 Buses=[DEV_259034.1 DEV_259034_TSF.1]
New Transformer.Xfmr_BB_259037_1 Xfmrcode=37 Buses=[DEV_259038.1 DEV_259038_TSF.1]
New Transformer.Xfmr_BB_259041_1 Xfmrcode=37 Buses=[DEV_259153.1 DEV_259153_TSF.1]
New Transformer.Xfmr_BB_259044_1 Xfmrcode=25 Buses=[DEV_259045.1 DEV_259045_TSF.1]
New Transformer.Xfmr_BB_259160_1 Xfmrcode=37 Buses=[DEV_259161.1 DEV_259161_TSF.1]
New Transformer.Xfmr_BB_259166_1 Xfmrcode=37 Buses=[DEV_259168.1 DEV_259168_TSF.1]
New Transformer.Xfmr_BB_259171_1 Xfmrcode=37 Buses=[DEV_259172.1 DEV_259172_TSF.1]
New Transformer.Xfmr_BB_259176_1 Xfmrcode=25 Buses=[DEV_259178.1 DEV_259178_TSF.1]
New Transformer.Xfmr_BB_51045896_1 Xfmrcode=50 Buses=[DEV_51045898.1 DEV_51045898_TSF.1]
New Transformer.Xfmr_BB_51045964_1 Xfmrcode=75 Buses=[DEV_51045966.3 DEV_51045966_TSF.3]
New Transformer.Xfmr_BB_51045975_1 Xfmrcode=50 Buses=[DEV_51045977.3 DEV_51045977_TSF.3]
New Transformer.Xfmr_BB_51045982_1 Xfmrcode=50 Buses=[DEV_51045984.3 DEV_51045984_TSF.3]
New Transformer.Xfmr_BB_51045990_1 Xfmrcode=50 Buses=[DEV_51045992.2 DEV_51045992_TSF.2]
New Transformer.Xfmr_BB_51046018_1 Xfmrcode=50 Buses=[DEV_51046020.2 DEV_51046020_TSF.2]
New Transformer.Xfmr_BB_51046037_1 Xfmrcode=50 Buses=[DEV_51046039.2 DEV_51046039_TSF.2]
New Transformer.Xfmr_BB_51046044_1 Xfmrcode=50 Buses=[DEV_51046046.3 DEV_51046046_TSF.3]
New Transformer.Xfmr_BB_51054581_1 Xfmrcode=25 Buses=[DEV_51054583.1 DEV_51054583_TSF.1]
New Transformer.Xfmr_OH_257608_1 Xfmrcode=50 Buses=[DEV_257789.3 DEV_257789_TSF.3]
New Transformer.Xfmr_OH_257796_1 Xfmrcode=37 Buses=[NODE_559690.3 NODE_559690_TSF.3]
New Transformer.Xfmr_OH_257798_1 Xfmrcode=50 Buses=[DEV_257790.3 DEV_257790_TSF.3]
New Transformer.Xfmr_OH_257804_1 Xfmrcode=25 Buses=[DEV_257791.3 DEV_257791_TSF.3]
New Transformer.Xfmr_OH_257806_1 Xfmrcode=75 Buses=[DEV_257795.3 DEV_257795_TSF.3]
New Transformer.Xfmr_OH_257807_1 Xfmrcode=25 Buses=[DEV_257565.3 DEV_257565_TSF.3]
New Transformer.Xfmr_OH_257808_1 Xfmrcode=25 Buses=[DEV_257809.3 DEV_257809_TSF.3]
New Transformer.Xfmr_OH_257811_1 Xfmrcode=25 Buses=[DEV_257810.3 DEV_257810_TSF.3]
New Transformer.Xfmr_OH_257813_1 Xfmrcode=25 Buses=[DEV_257812.3 DEV_257812_TSF.3]
New Transformer.Xfmr_OH_257815_1 Xfmrcode=50 Buses=[DEV_257814.3 DEV_257814_TSF.3]
New Transformer.Xfmr_OH_258777_1 Xfmrcode=25 Buses=[NODE_609020.1 NODE_609020_TSF.1]
